! Blank file in which we can put "overrides" for parameters
VERBOSITY = 2
SAVE_INITIAL_CONDS = True
#override ENERGYSAVEDAYS = 1.0
#override RESOLN_SCALED_KHTR = True
#override KH_RES_FN_POWER = 100
#override VISC_RES_FN_POWER = 100
DEBUG = False
IO_LAYOUT = 1,1